Created by Neuralplexer v3
  PyMOL2.5          3D                             0

 13 14  0  0  0  0  0  0  0  0999 V2000
  -22.0425   13.0261   30.5435 C   0  0  0  0  0  0  0  0  0  0  0  0
  -21.0693   14.0228   29.9720 N   0  0  0  0  0  0  0  0  0  0  0  0
  -20.0934   14.1627   29.2608 C   0  0  0  0  0  0  0  0  0  0  0  0
  -19.6107   15.4876   28.1996 C   0  0  0  0  0  0  0  0  0  0  0  0
  -19.3095   16.2827   27.0666 C   0  0  0  0  0  0  0  0  0  0  0  0
  -19.4754   17.5510   27.1578 C   0  0  0  0  0  0  0  0  0  0  0  0
  -20.2675   17.7545   28.2458 C   0  0  0  0  0  0  0  0  0  0  0  0
  -20.6372   16.2407   29.3642 S   0  0  0  0  0  0  0  0  0  0  0  0
  -19.7325   18.7543   26.2308 O   0  0  0  0  0  0  0  0  0  0  0  0
  -19.0059   18.7499   24.6539 C   0  0  0  0  0  0  0  0  0  0  0  0
  -18.6498   17.5880   24.5342 C   0  0  0  0  0  0  0  0  0  0  0  0
  -19.0999   16.5158   25.6556 O   0  0  0  0  0  0  0  0  0  0  0  0
  -19.1812   13.0337   28.9199 O   0  0  0  0  0  0  0  0  0  0  0  0
  1  2  1  0  0  0  0
  2  3  1  0  0  0  0
  3  4  1  0  0  0  0
  3 13  2  0  0  0  0
  4  5  2  0  0  0  0
  4  8  1  0  0  0  0
  5  6  1  0  0  0  0
  5 12  1  0  0  0  0
  6  7  2  0  0  0  0
  6  9  1  0  0  0  0
  7  8  1  0  0  0  0
  9 10  1  0  0  0  0
 10 11  1  0  0  0  0
 11 12  1  0  0  0  0
M  END
$$$$
