Created by Neuralplexer v3
     RDKit          3D

 13 14  0  0  0  0  0  0  0  0999 V2000
    2.1134   15.8691    5.8680 C   0  0  0  0  0  0  0  0  0  0  0  0
    1.4690   14.7442    6.6339 N   0  0  0  0  0  0  0  0  0  0  0  0
    0.8021   13.7322    6.5392 C   0  0  0  0  0  0  0  0  0  0  0  0
    0.8081   12.2450    7.4893 C   0  0  0  0  0  0  0  0  0  0  0  0
    0.9671   10.9036    7.9159 C   0  0  0  0  0  0  0  0  0  0  0  0
    1.1913   10.6883    9.1600 C   0  0  0  0  0  0  0  0  0  0  0  0
    1.5861   11.8792    9.6878 C   0  0  0  0  0  0  0  0  0  0  0  0
    1.4401   13.4316    8.5708 S   0  0  0  0  0  0  0  0  0  0  0  0
    1.8373    9.6094   10.0499 O   0  0  0  0  0  0  0  0  0  0  0  0
    1.6835    7.9471    9.5730 C   0  0  0  0  0  0  0  0  0  0  0  0
    1.2986    8.0418    8.4180 C   0  0  0  0  0  0  0  0  0  0  0  0
    1.2616    9.5012    7.7264 O   0  0  0  0  0  0  0  0  0  0  0  0
   -0.0281   13.4284    5.3387 O   0  0  0  0  0  0  0  0  0  0  0  0
  1  2  1  0
  2  3  1  0
  3  4  1  0
  4  5  2  0
  5  6  1  0
  6  7  2  0
  7  8  1  0
  4  8  1  0
  6  9  1  0
  9 10  1  0
 10 11  1  0
  5 12  1  0
 11 12  1  0
  3 13  2  0
M  END
